CM 
CE
SY lena=.1676	'length of 440 dipole
SY lenb = .50	'length of 2M monopole
GW	1	200	-0.5271	0	0	-0.0381	0	0	0.001
GW	2	200	-lena	0.03	0.04445	-0.0254	0.03	0	0.001
GW	3	200	lena	0.03	0.04445	0.0254	0.03	0	0.001
SP	0	1	-0.051	-0.051	-0.02	0.051	-0.051	-0.02
SC	0	-1	0.051	0.051	-0.02
SP	0	1	-0.051	-0.051	-0.02	-0.051	-0.051	-0.124
SC	0	-1	0.051	-0.051	-0.124
SP	0	1	-0.051	-0.051	-0.02	-0.051	0.051	-0.02
SC	0	-1	-0.051	0.051	-0.124
SP	0	1	0.051	0.051	-0.02	-0.051	0.051	-0.02
SC	0	-1	-0.051	0.051	-0.124
SP	0	1	0.051	0.051	-0.02	0.051	-0.051	-0.02
SC	0	-1	0.051	-0.051	-0.124
SP	0	1	0.051	0.051	-0.124	-0.051	0.051	-0.124
SC	0	-1	-0.051	-0.051	-0.124
GW	4	14	-0.0381	0	0	-0.0381	0	-0.02	0.0025
GE	0
LD	5	2	0	0	1390000
GN	-1
EK
EX	0	2	100	0	1	0	0
EX	0	3	100	0	1	0	0
FR	0	0	0	0	436	0
EN
